  
       XFOIL         Version 6.99
  
 Calculated polar for: NACA 0006                                       
  
 1 1 Reynolds number fixed          Mach number fixed         
  
 xtrf =   1.000 (top)        1.000 (bottom)  
 Mach =   0.000     Re =     0.000 e 6     Ncrit =   9.000  9.000
  
   alpha    CL        CD       CDp       CM     Top_Xtr  Bot_Xtr  Top_Itr  Bot_Itr
  ------ -------- --------- --------- -------- -------- -------- -------- --------
   0.000   0.0000   0.00000  -0.00067  -0.0000   0.0000   0.0000   0.0000   0.0000
   2.000   0.2303   0.00000  -0.00070  -0.0012   0.0000   0.0000   0.0000   0.0000
   4.000   0.4603   0.00000  -0.00079  -0.0023   0.0000   0.0000   0.0000   0.0000
   6.000   0.6898   0.00000  -0.00095  -0.0035   0.0000   0.0000   0.0000   0.0000
   8.000   0.9184   0.00000  -0.00117  -0.0046   0.0000   0.0000   0.0000   0.0000
  10.000   1.1460   0.00000  -0.00145  -0.0057   0.0000   0.0000   0.0000   0.0000
